Version 4
SHEET 1 880 680
WIRE 224 48 48 48
WIRE 352 48 224 48
WIRE 48 112 48 48
WIRE 224 112 224 48
WIRE 352 112 352 48
WIRE 48 256 48 192
WIRE 224 256 224 176
WIRE 224 256 48 256
WIRE 352 256 352 192
WIRE 352 256 224 256
WIRE 224 288 224 256
FLAG 224 288 0
SYMBOL voltage 48 96 R0
WINDOW 123 24 124 Left 2
WINDOW 39 24 152 Left 2
SYMATTR Value2 AC 1
SYMATTR SpiceLine Rser=50
SYMATTR InstName V1
SYMATTR Value ""
SYMBOL cap 208 112 R0
SYMATTR InstName C1
SYMATTR Value 206p
SYMBOL ind 336 96 R0
SYMATTR InstName L1
SYMATTR Value 307n
TEXT 136 352 Left 2 !.ac dec 100 1k 40000000
